grid_simulations/tests/Result_no_control/output_voltage_16.csv
# Result_no_control/output_voltage_16.csv run at 2000-01-01 16:00:00 EST on 963 nodes
node_name,voltA_mag,voltA_angle,voltB_mag,voltB_angle,voltC_mag,voltC_angle
SourceBus,6668.395609,0.000000,6668.395609,4.188790,6668.395609,2.094395
Bus1,248.310789,-0.559145,247.997583,3.634654,249.348378,1.546969
Bus2,247.845883,-0.558645,247.590171,3.634575,249.170958,1.547144
Bus3,247.797148,-0.558593,247.547460,3.634566,249.152359,1.547162
Bus4,247.751491,-0.558544,247.507446,3.634559,249.134934,1.547179
Bus5,247.711686,-0.558501,247.472560,3.634552,249.119742,1.547194
Bus6,247.648977,-0.558433,247.417600,3.634541,249.095809,1.547218
Bus7,243.381527,-0.553746,243.675166,3.633801,247.466410,1.548831
Bus8,243.190522,-0.553532,243.507551,3.633767,247.393447,1.548904
Bus9,243.031553,-0.553354,243.368042,3.633739,247.332719,1.548964
Bus10,242.892052,-0.553197,243.245612,3.633714,247.279427,1.549017
Bus11,242.787962,-0.553080,243.154257,3.633696,247.239661,1.549057
Bus12,242.690249,-0.552970,243.068496,3.633679,247.202331,1.549094
Bus13,242.630167,-0.552903,243.015761,3.633668,247.179377,1.549117
Bus14,242.480592,-0.552734,242.884475,3.633641,247.122231,1.549174
Bus15,241.269171,-0.551362,241.820956,3.633426,246.659334,1.549638
Bus16,241.269171,-0.551362,241.820956,3.633426,246.659334,1.549638
Bus17,239.800733,-0.549679,240.531271,3.633161,246.098064,1.550203
Bus18,241.269171,-0.551362,241.820956,3.633426,246.659334,1.549638
Bus19,239.699720,-0.549562,240.442534,3.633143,246.059448,1.550241
Bus20,241.269171,-0.551362,241.820956,3.633426,246.659334,1.549638
Bus21,239.586299,-0.549431,240.342892,3.633122,246.016087,1.550285
Bus22,241.269171,-0.551362,241.820956,3.633426,246.659334,1.549638
Bus23,239.401635,-0.549218,240.180655,3.633089,245.945488,1.550356
Bus24,241.269171,-0.551362,241.820956,3.633426,246.659334,1.549638
Bus25,239.065715,-0.548828,239.885508,3.633028,245.817055,1.550486
Bus26,241.269171,-0.551362,241.820956,3.633426,246.659334,1.549638
Bus27,238.591907,-0.548339,239.886982,3.632999,245.822256,1.550505
Bus28,235.409822,-0.544398,236.131490,3.633275,244.023654,1.551440
Bus29,241.269171,-0.551362,241.820956,3.633426,246.659334,1.549638
Bus30,238.526664,-0.548272,239.887186,3.632995,245.822972,1.550508
Bus31,238.528325,-0.548273,239.887180,3.632995,245.822954,1.550507
Bus32,234.437359,-0.543196,235.132113,3.633342,243.546260,1.551697
Bus33,241.269171,-0.551362,241.820956,3.633426,246.659334,1.549638
Bus34,238.377259,-0.548117,239.887650,3.632986,245.824613,1.550513
Bus35,238.526172,-0.548271,239.887187,3.632995,245.822978,1.550508
Bus36,234.442521,-0.543176,234.664892,3.633833,243.547582,1.551669
Bus37,231.346835,-0.540081,232.561318,3.633108,242.061587,1.553301
Bus38,241.269171,-0.551362,241.820956,3.633426,246.659334,1.549638
Bus39,238.523076,-0.548268,239.887197,3.632995,245.823012,1.550508
Bus40,234.442702,-0.543176,234.648573,3.633850,243.547629,1.551668
Bus41,234.443336,-0.543173,234.591211,3.633910,243.547791,1.551665
Bus42,229.203566,-0.537871,230.777364,3.632943,241.031692,1.554426
Bus43,231.346835,-0.540081,232.561318,3.633108,242.061587,1.553301
Bus44,241.269171,-0.551362,241.820956,3.633426,246.659334,1.549638
Bus45,238.519106,-0.548264,239.887209,3.632995,245.823055,1.550508
Bus46,234.442783,-0.543175,234.641217,3.633857,243.547649,1.551668
Bus47,234.445294,-0.543166,234.413928,3.634097,243.548293,1.551654
Bus48,227.584744,-0.536173,229.429312,3.632816,240.253649,1.555282
Bus49,231.346835,-0.540081,232.561318,3.633108,242.061587,1.553301
Bus50,241.269171,-0.551362,241.820956,3.633426,246.659334,1.549638
Bus51,238.509436,-0.548254,239.887239,3.632994,245.823161,1.550508
Bus52,234.442869,-0.543175,234.633422,3.633866,243.547672,1.551667
Bus53,227.351398,-0.535926,229.234950,3.632798,240.141485,1.555406
Bus54,227.584744,-0.536173,229.429312,3.632816,240.253649,1.555282
Bus55,231.346835,-0.540081,232.561318,3.633108,242.061587,1.553301
Bus56,241.269171,-0.551362,241.820956,3.633426,246.659334,1.549638
Bus57,238.501158,-0.548245,239.887265,3.632994,245.823252,1.550509
Bus58,234.442951,-0.543175,234.625998,3.633874,243.547693,1.551667
Bus59,226.294572,-0.534802,228.354544,3.632714,239.633461,1.555969
Bus60,227.584744,-0.536173,229.429312,3.632816,240.253649,1.555282
Bus61,231.346835,-0.540081,232.561318,3.633108,242.061587,1.553301
Bus62,241.269171,-0.551362,241.820956,3.633426,246.659334,1.549638
Bus63,238.461473,-0.548204,239.887389,3.632991,245.823688,1.550510
Bus64,234.443000,-0.543175,234.621551,3.633878,243.547705,1.551666
Bus65,226.112413,-0.534605,228.172065,3.632760,239.519366,1.556042
Bus66,225.593917,-0.534037,228.356870,3.632670,239.641092,1.555998
Bus67,227.584744,-0.536173,229.429312,3.632816,240.253649,1.555282
Bus68,231.346835,-0.540081,232.561318,3.633108,242.061587,1.553301
Bus69,241.269171,-0.551362,241.820956,3.633426,246.659334,1.549638
Bus70,238.321204,-0.548059,239.887825,3.632983,245.825228,1.550516
Bus71,234.443097,-0.543174,234.612828,3.633887,243.547730,1.551666
Bus72,223.960943,-0.532252,226.016178,3.633304,238.171483,1.556910
Bus73,225.422699,-0.533850,228.357439,3.632659,239.642957,1.556005
Bus74,225.422699,-0.533850,228.357439,3.632659,239.642957,1.556005
Bus75,227.584744,-0.536173,229.429312,3.632816,240.253649,1.555282
Bus76,231.346835,-0.540081,232.561318,3.633108,242.061587,1.553301
Bus77,241.269171,-0.551362,241.820956,3.633426,246.659334,1.549638
Bus78,234.443585,-0.543172,234.568617,3.633934,243.547855,1.551663
Bus79,223.211291,-0.531421,225.264707,3.633496,237.701688,1.557215
Bus80,227.584744,-0.536173,229.429312,3.632816,240.253649,1.555282
Bus81,231.346835,-0.540081,232.561318,3.633108,242.061587,1.553301
Bus82,241.269171,-0.551362,241.820956,3.633426,246.659334,1.549638
Bus83,234.445426,-0.543165,234.402025,3.634109,243.548326,1.551653
Bus84,223.047713,-0.531239,225.100713,3.633538,237.599166,1.557281
Bus85,227.584744,-0.536173,229.429312,3.632816,240.253649,1.555282
Bus86,231.346835,-0.540081,232.561318,3.633108,242.061587,1.553301
Bus87,241.269171,-0.551362,241.820956,3.633426,246.659334,1.549638
Bus88,222.716025,-0.530869,224.768159,3.633624,237.391271,1.557417
Bus89,227.584744,-0.536173,229.429312,3.632816,240.253649,1.555282
Bus90,231.346835,-0.540081,232.561318,3.633108,242.061587,1.553301
Bus91,241.269171,-0.551362,241.820956,3.633426,246.659334,1.549638
Bus92,222.403256,-0.530519,224.454547,3.633705,237.195221,1.557544
Bus93,231.346835,-0.540081,232.561318,3.633108,242.061587,1.553301
Bus94,241.269171,-0.551362,241.820956,3.633426,246.659334,1.549638
Bus95,222.221475,-0.530316,224.272264,3.633752,237.081271,1.557619
Bus96,231.346835,-0.540081,232.561318,3.633108,242.061587,1.553301
Bus97,241.269171,-0.551362,241.820956,3.633426,246.659334,1.549638
Bus98,222.101427,-0.530181,224.151881,3.633783,237.006016,1.557668
Bus99,231.346835,-0.540081,232.561318,3.633108,242.061587,1.553301
Bus100,241.269171,-0.551362,241.820956,3.633426,246.659334,1.549638
Bus101,221.935682,-0.529994,223.985665,3.633827,236.902111,1.557736
Bus102,231.346835,-0.540081,232.561318,3.633108,242.061587,1.553301
Bus103,241.269171,-0.551362,241.820956,3.633426,246.659334,1.549638
Bus104,221.935936,-0.529994,223.981132,3.633826,236.899576,1.557727
Bus105,221.824325,-0.529884,223.898557,3.633818,236.846332,1.557806
Bus106,231.346835,-0.540081,232.561318,3.633108,242.061587,1.553301
Bus107,221.936244,-0.529995,223.975649,3.633825,236.896509,1.557716
Bus108,221.761182,-0.529821,223.849163,3.633814,236.814703,1.557845
Bus109,231.346835,-0.540081,232.561318,3.633108,242.061587,1.553301
Bus110,221.936600,-0.529995,223.969293,3.633823,236.892954,1.557703
Bus111,219.270414,-0.527320,221.900197,3.633627,235.567007,1.559413
Bus112,231.346835,-0.540081,232.561318,3.633108,242.061587,1.553301
Bus113,221.937143,-0.529995,223.959602,3.633822,236.887535,1.557683
Bus114,219.020969,-0.527066,221.704954,3.633608,235.442047,1.559571
Bus115,231.346835,-0.540081,232.561318,3.633108,242.061587,1.553301
Bus116,221.937842,-0.529995,223.947144,3.633819,236.880567,1.557658
Bus117,219.019539,-0.527076,221.694987,3.633607,235.431555,1.559549
Bus118,218.262051,-0.526574,221.190850,3.633113,235.154892,1.559921
Bus119,231.346835,-0.540081,232.561318,3.633108,242.061587,1.553301
Bus120,221.938344,-0.529995,223.938199,3.633818,236.875565,1.557640
Bus121,219.019539,-0.527076,221.694987,3.633607,235.431555,1.559549
Bus122,219.018843,-0.527081,221.690134,3.633607,235.426446,1.559538
Bus123,216.893574,-0.525678,220.263866,3.632216,234.637119,1.560556
Bus124,231.346835,-0.540081,232.561318,3.633108,242.061587,1.553301
Bus125,221.939052,-0.529995,223.925561,3.633815,236.868497,1.557614
Bus126,219.019539,-0.527076,221.694987,3.633607,235.431555,1.559549
Bus127,219.015573,-0.527104,221.667336,3.633606,235.402448,1.559487
Bus128,216.278228,-0.525272,219.847061,3.631810,234.404308,1.560842
Bus129,231.346835,-0.540081,232.561318,3.633108,242.061587,1.553301
Bus130,221.939819,-0.529995,223.911888,3.633812,236.860850,1.557587
Bus131,219.019539,-0.527076,221.694987,3.633607,235.431555,1.559549
Bus132,218.848249,-0.526916,221.667907,3.633595,235.404264,1.559494
Bus133,219.055911,-0.527150,221.596924,3.633694,235.319168,1.559279
Bus134,216.095153,-0.525151,219.723057,3.631689,234.335043,1.560927
Bus135,231.346835,-0.540081,232.561318,3.633108,242.061587,1.553301
Bus136,221.940542,-0.529995,223.898993,3.633810,236.853639,1.557561
Bus137,219.019539,-0.527076,221.694987,3.633607,235.431555,1.559549
Bus138,218.833839,-0.526899,221.667956,3.633594,235.404420,1.559495
Bus139,219.085920,-0.527185,221.544543,3.633760,235.257220,1.559125
Bus140,215.888501,-0.525013,219.583084,3.631552,234.256860,1.561023
Bus141,231.346835,-0.540081,232.561318,3.633108,242.061587,1.553301
Bus142,221.941731,-0.529995,223.877791,3.633806,236.841783,1.557518
Bus143,219.019539,-0.527076,221.694987,3.633607,235.431555,1.559549
Bus144,218.819701,-0.526883,221.668004,3.633593,235.404574,1.559495
Bus145,219.106017,-0.527208,221.509465,3.633805,235.215737,1.559021
Bus146,215.694152,-0.524884,219.451447,3.631423,234.183332,1.561114
Bus147,231.346835,-0.540081,232.561318,3.633108,242.061587,1.553301
Bus148,221.947384,-0.529996,223.776982,3.633787,236.785416,1.557313
Bus149,219.019539,-0.527076,221.694987,3.633607,235.431555,1.559549
Bus150,218.808285,-0.526871,221.668043,3.633592,235.404697,1.559496
Bus151,219.110626,-0.527295,221.523383,3.633868,235.169646,1.559004
Bus152,219.111003,-0.527189,221.063889,3.634300,235.216957,1.558994
Bus153,215.467388,-0.524733,219.297855,3.631272,234.097541,1.561219
Bus154,231.346835,-0.540081,232.561318,3.633108,242.061587,1.553301
Bus155,221.948615,-0.529996,223.755021,3.633783,236.773138,1.557269
Bus156,219.019539,-0.527076,221.694987,3.633607,235.431555,1.559549
Bus157,218.791150,-0.526851,221.668102,3.633591,235.404883,1.559496
Bus158,219.122856,-0.527527,221.560298,3.634035,235.047411,1.558960
Bus159,219.111306,-0.527187,221.036770,3.634330,235.217032,1.558992
Bus160,215.402139,-0.524689,219.253661,3.631229,234.072856,1.561250
Bus161,231.346835,-0.540081,232.561318,3.633108,242.061587,1.553301
Bus162,221.954241,-0.529974,223.251396,3.634338,236.774526,1.557238
Bus163,221.941995,-0.530043,223.707748,3.633780,236.723276,1.557163
Bus164,219.019539,-0.527076,221.694987,3.633607,235.431555,1.559549
Bus165,218.770492,-0.526828,221.668172,3.633590,235.405108,1.559497
Bus166,219.127107,-0.527608,221.573122,3.634093,235.004952,1.558945
Bus167,219.111584,-0.527186,221.011996,3.634358,235.217100,1.558990
Bus168,215.031457,-0.524441,219.002595,3.630982,233.932618,1.561423
Bus169,231.346835,-0.540081,232.561318,3.633108,242.061587,1.553301
Bus170,221.955303,-0.529970,223.156260,3.634443,236.774789,1.557232
Bus171,221.933205,-0.530106,223.644988,3.633777,236.657085,1.557023
Bus172,219.019539,-0.527076,221.694987,3.633607,235.431555,1.559549
Bus173,218.754886,-0.526810,221.668226,3.633589,235.405277,1.559498
Bus174,219.127107,-0.527608,221.573122,3.634093,235.004952,1.558945
Bus175,219.128105,-0.527631,221.576812,3.634108,234.661188,1.559305
Bus176,219.111699,-0.527186,221.001704,3.634369,235.217128,1.558990
Bus177,214.822099,-0.524301,218.860797,3.630843,233.853414,1.561521
Bus178,221.957496,-0.529962,222.959984,3.634661,236.775330,1.557220
Bus179,221.930201,-0.530088,223.629831,3.633756,236.661096,1.557005
Bus180,221.933780,-0.530118,223.647104,3.633786,236.460186,1.557228
Bus181,219.019539,-0.527076,221.694987,3.633607,235.431555,1.559549
Bus182,218.736827,-0.526790,221.668287,3.633588,235.405473,1.559499
Bus183,219.127107,-0.527608,221.573122,3.634093,235.004952,1.558945
Bus184,219.128213,-0.527633,221.577211,3.634110,234.624063,1.559344
Bus185,219.111947,-0.527185,220.979521,3.634394,235.217189,1.558988
Bus186,214.666689,-0.524196,218.755539,3.630739,233.794620,1.561594
Bus187,221.918381,-0.530017,223.570182,3.633674,236.676883,1.556934
Bus188,221.936157,-0.530171,223.655862,3.633822,235.645372,1.558078
Bus189,219.019539,-0.527076,221.694987,3.633607,235.431555,1.559549
Bus190,218.719847,-0.526771,221.668345,3.633587,235.405657,1.559499
Bus191,219.127107,-0.527608,221.573122,3.634093,235.004952,1.558945
Bus192,219.127107,-0.527608,221.573122,3.634093,235.004952,1.558945
Bus193,219.128318,-0.527635,221.577596,3.634112,234.588154,1.559382
Bus194,219.112579,-0.527182,220.923021,3.634457,235.217343,1.558985
Bus195,214.526971,-0.524102,218.660909,3.630645,233.741763,1.561659
Bus196,221.897278,-0.529892,223.463686,3.633526,236.705073,1.556807
Bus197,221.936389,-0.530176,223.656718,3.633826,235.565765,1.558162
Bus198,221.936291,-0.530174,223.656357,3.633825,235.599352,1.558126
Bus199,219.019539,-0.527076,221.694987,3.633607,235.431555,1.559549
Bus200,218.701577,-0.526750,221.668408,3.633586,235.405856,1.559500
...
SourceBus_1,6631.692782,-0.007988,6636.097836,4.182729,6644.963690,2.086797
LOAD1,238.377259,-0.548117,239.887650,3.632986,245.824613,1.550513
LOAD2,234.445294,-0.543166,234.413928,3.634097,243.548293,1.551654
LOAD3,238.321204,-0.548059,239.887825,3.632983,245.825228,1.550516
LOAD4,225.422699,-0.533850,228.357439,3.632659,239.642957,1.556005
LOAD5,225.422699,-0.533850,228.357439,3.632659,239.642957,1.556005
LOAD6,234.445426,-0.543165,234.402025,3.634109,243.548326,1.551653
LOAD7,221.957496,-0.529962,222.959984,3.634661,236.775330,1.557220
LOAD8,221.936976,-0.530189,223.658881,3.633835,235.364506,1.558373
LOAD9,221.098926,-0.529003,223.466383,3.633475,236.713737,1.556840
LOAD10,221.944539,-0.529701,221.961140,3.635038,236.718610,1.556545
LOAD11,221.944539,-0.529701,221.961140,3.635038,236.718610,1.556545
LOAD12,221.937134,-0.530193,223.659461,3.633837,235.310619,1.558429
LOAD13,219.120230,-0.527153,220.239390,3.635222,235.219217,1.558943
LOAD14,218.387374,-0.526395,221.669480,3.633565,235.409266,1.559513
LOAD15,219.119218,-0.527157,220.329887,3.635120,235.218968,1.558949
LOAD16,219.130425,-0.527683,221.585379,3.634144,233.863157,1.560145
LOAD17,219.129973,-0.527673,221.583714,3.634137,234.018292,1.559982
LOAD18,208.608897,-0.516977,214.747556,3.625409,232.337301,1.564883
LOAD19,212.408756,-0.522712,217.167877,3.629357,232.266051,1.563239
LOAD20,208.967907,-0.518287,215.728489,3.626576,232.795813,1.563958
LOAD21,212.517165,-0.522426,217.744633,3.629692,233.235753,1.562323
LOAD22,208.815401,-0.518107,215.729043,3.626566,232.797462,1.563964
LOAD23,207.783496,-0.514936,213.356640,3.625118,233.110558,1.564345
LOAD24,210.915900,-0.521722,215.717184,3.629088,231.046684,1.563743
LOAD25,199.996016,-0.500556,210.479910,3.614906,234.728359,1.567440
LOAD26,208.242997,-0.517408,211.436142,3.628906,230.633680,1.561294
LOAD27,210.350261,-0.521269,214.957679,3.629261,230.312494,1.563833
LOAD28,210.350765,-0.521281,214.959546,3.629269,230.137106,1.564021
LOAD29,199.449990,-0.498051,209.160842,3.615046,234.741466,1.566348
LOAD30,200.050136,-0.500622,210.479690,3.614910,234.727782,1.567437
LOAD31,199.463357,-0.498067,209.160787,3.615047,234.741324,1.566347
LOAD32,207.534265,-0.516702,211.275249,3.627926,229.794274,1.562046
LOAD33,201.390386,-0.498943,207.810168,3.617771,233.642966,1.564584
LOAD34,201.885598,-0.504295,211.470680,3.616738,234.408265,1.567085
LOAD35,201.508213,-0.498380,206.656268,3.619067,234.279657,1.563295
LOAD36,201.300316,-0.498657,206.455486,3.618921,234.452037,1.564105
LOAD37,201.300681,-0.498656,206.424025,3.618959,234.452113,1.564103
LOAD38,206.669804,-0.515460,209.901164,3.627787,230.238400,1.561508
LOAD39,205.996164,-0.514786,209.710229,3.626993,228.877477,1.562408
LOAD40,205.538884,-0.513303,208.161010,3.627384,229.821095,1.560723
LOAD41,204.447179,-0.509181,204.827543,3.629139,229.367182,1.558856
LOAD42,205.996268,-0.514789,209.710630,3.626994,228.839802,1.562448
LOAD43,203.759104,-0.508659,205.519656,3.627949,227.593758,1.560625
LOAD44,207.989929,-0.517054,210.916902,3.629042,230.540130,1.561246
LOAD45,204.446634,-0.509183,204.875301,3.629082,229.367055,1.558859
LOAD46,203.787427,-0.512104,210.372228,3.626579,230.218380,1.561804
LOAD47,203.758941,-0.508655,205.518996,3.627946,227.655620,1.560558
LOAD48,203.898819,-0.512239,210.371813,3.626587,230.217184,1.561799
LOAD49,203.678537,-0.511972,210.372633,3.626572,230.219548,1.561808
LOAD50,203.222490,-0.503828,201.907542,3.629366,229.442823,1.556685
LOAD51,203.327155,-0.509658,207.849293,3.625950,229.786813,1.560651
LOAD52,201.504117,-0.503610,204.336173,3.626521,229.354257,1.558580
LOAD53,203.222490,-0.503828,201.814146,3.629484,229.442823,1.556685
LOAD54,203.023862,-0.509290,207.850436,3.625930,229.790056,1.560664
LOAD55,201.473809,-0.503508,204.341716,3.626421,229.369582,1.558644
